# created with PyMOL 2.5.2
@<TRIPOS>MOLECULE
7F16_receptor_and_peptide_only
55 56 6                 
SMALL
USER_CHARGES
@<TRIPOS>ATOM
1	   N	-3.274	0.603	-0.091	N.3	1	TYR29	0.000	
2	  CA	-1.814	0.583	-0.094	C.3	1	TYR29	0.000	
3	   C	-1.273	-0.838	-0.192	C.2	1	TYR29	0.000	
4	   O	-0.311	-1.093	-0.928	O.2	1	TYR29	0.000	
5	  CB	-1.298	1.274	1.169	C.3	1	TYR29	0.000	
6	  CG	0.205	1.386	1.271	C.2	1	TYR29	0.000	
7	 CD1	0.904	2.322	0.518	C.2	1	TYR29	0.000	
8	 CD2	0.923	0.572	2.140	C.2	1	TYR29	0.000	
9	 CE1	2.279	2.435	0.615	C.2	1	TYR29	0.000	
10	 CE2	2.299	0.677	2.246	C.2	1	TYR29	0.000	
11	  CZ	2.971	1.610	1.482	C.2	1	TYR29	0.000	
12	  OH	4.338	1.717	1.584	O.3	1	TYR29	0.000	
13	   N	-1.881	-1.778	0.542	N.am	2	MET30	0.000	
14	  CA	-1.474	-3.176	0.441	C.3	2	MET30	0.000	
15	   C	-1.787	-3.747	-0.938	C.2	2	MET30	0.000	
16	   O	-0.988	-4.514	-1.487	O.2	2	MET30	0.000	
17	  CB	-2.146	-4.008	1.534	C.3	2	MET30	0.000	
18	  CG	-1.686	-5.461	1.558	C.3	2	MET30	0.000	
19	  SD	-2.434	-6.463	2.852	S.3	2	MET30	0.000	
20	  CE	-1.567	-5.850	4.291	C.3	2	MET30	0.000	
21	   N	-2.940	-3.377	-1.511	N.am	3	HIS31	0.000	
22	  CA	-3.297	-3.830	-2.855	C.3	3	HIS31	0.000	
23	   C	-2.334	-3.284	-3.905	C.2	3	HIS31	0.000	
24	   O	-2.032	-3.965	-4.893	O.2	3	HIS31	0.000	
25	  CB	-4.733	-3.418	-3.179	C.3	3	HIS31	0.000	
26	  CG	-5.210	-3.895	-4.516	C.2	3	HIS31	0.000	
27	 CD2	-5.415	-3.231	-5.678	C.2	3	HIS31	0.000	
28	 ND1	-5.536	-5.211	-4.763	N.2	3	HIS31	0.000	
29	 CE1	-5.921	-5.338	-6.020	C.2	3	HIS31	0.000	
30	 NE2	-5.857	-4.152	-6.597	N.pl3	3	HIS31	0.000	
31	   N	-1.864	-2.047	-3.720	N.am	4	LYS32	0.000	
32	  CA	-0.822	-1.506	-4.590	C.3	4	LYS32	0.000	
33	   C	0.496	-2.253	-4.418	C.2	4	LYS32	0.000	
34	   O	1.191	-2.528	-5.404	O.2	4	LYS32	0.000	
35	  CB	-0.632	-0.012	-4.324	C.3	4	LYS32	0.000	
36	  CG	-1.774	0.861	-4.820	C.3	4	LYS32	0.000	
37	  CD	-1.515	2.331	-4.528	C.3	4	LYS32	0.000	
38	  CE	-2.676	3.198	-4.989	C.3	4	LYS32	0.000	
39	  NZ	-2.452	4.638	-4.685	N.3	4	LYS32	0.000	
40	   N	0.869	-2.569	-3.173	N.am	5	LEU33	0.000	
41	  CA	2.073	-3.367	-2.945	C.3	5	LEU33	0.000	
42	   C	1.911	-4.803	-3.438	C.2	5	LEU33	0.000	
43	   O	2.847	-5.372	-4.012	O.2	5	LEU33	0.000	
44	  CB	2.458	-3.344	-1.465	C.3	5	LEU33	0.000	
45	  CG	3.467	-2.284	-1.002	C.3	5	LEU33	0.000	
46	 CD1	2.955	-0.858	-1.120	C.3	5	LEU33	0.000	
47	 CD2	3.874	-2.581	0.432	C.3	5	LEU33	0.000	
48	   N	0.749	-5.411	-3.211	N.am	6	LEU34	0.000	
49	  CA	0.510	-6.779	-3.674	C.3	6	LEU34	0.000	
50	   C	0.340	-6.827	-5.190	C.2	6	LEU34	0.000	
51	   O	0.952	-7.655	-5.864	O.2	6	LEU34	0.000	
52	  CB	-0.722	-7.381	-2.993	C.3	6	LEU34	0.000	
53	  CG	-1.053	-8.837	-3.324	C.3	6	LEU34	0.000	
54	 CD1	0.063	-9.759	-2.862	C.3	6	LEU34	0.000	
55	 CD2	-2.381	-9.239	-2.699	C.3	6	LEU34	0.000	
@<TRIPOS>BOND
1 1 2 1
2 2 3 1
3 2 5 1
4 3 4 2
5 3 13 1
6 5 6 1
7 6 7 2
8 6 8 1
9 7 9 1
10 8 10 2
11 9 11 2
12 10 11 1
13 11 12 1
14 13 14 1
15 14 15 1
16 14 17 1
17 15 16 2
18 15 21 1
19 17 18 1
20 18 19 1
21 19 20 1
22 21 22 1
23 22 23 1
24 22 25 1
25 23 24 2
26 23 31 1
27 25 26 1
28 26 27 2
29 26 28 1
30 27 30 1
31 28 29 2
32 29 30 1
33 31 32 1
34 32 33 1
35 32 35 1
36 33 34 2
37 33 40 1
38 35 36 1
39 36 37 1
40 37 38 1
41 38 39 1
42 40 41 1
43 41 42 1
44 41 44 1
45 42 43 2
46 42 48 1
47 44 45 1
48 45 46 1
49 45 47 1
50 48 49 1
51 49 50 1
52 49 52 1
53 50 51 2
54 52 53 1
55 53 54 1
56 53 55 1
@<TRIPOS>SUBSTRUCTURE
1	TYR29	1	RESIDUE	1 P	TYR
2	MET30	13	RESIDUE	1 P	MET
3	HIS31	21	RESIDUE	1 P	HIS
4	LYS32	31	RESIDUE	1 P	LYS
5	LEU33	40	RESIDUE	1 P	LEU
6	LEU34	48	RESIDUE	1 P	LEU
