# created with PyMOL 2.5.2
@<TRIPOS>MOLECULE
7F16_receptor_and_peptide_only
55 56 6                 
SMALL
USER_CHARGES
@<TRIPOS>ATOM
1	   N	103.017	113.777	178.040	N.am	1	TYR29	0.000	
2	  CA	103.914	113.574	179.174	C.3	1	TYR29	0.000	
3	   C	103.480	114.391	180.385	C.2	1	TYR29	0.000	
4	   O	103.509	113.895	181.519	O.2	1	TYR29	0.000	
5	  CB	105.341	113.935	178.759	C.3	1	TYR29	0.000	
6	  CG	106.394	113.711	179.819	C.2	1	TYR29	0.000	
7	 CD1	106.844	112.430	180.119	C.2	1	TYR29	0.000	
8	 CD2	106.957	114.783	180.503	C.2	1	TYR29	0.000	
9	 CE1	107.815	112.221	181.082	C.2	1	TYR29	0.000	
10	 CE2	107.929	114.585	181.467	C.2	1	TYR29	0.000	
11	  CZ	108.354	113.303	181.752	C.2	1	TYR29	0.000	
12	  OH	109.320	113.102	182.710	O.3	1	TYR29	0.000	
13	   N	103.074	115.647	180.164	N.am	2	MET30	0.000	
14	  CA	102.566	116.466	181.261	C.3	2	MET30	0.000	
15	   C	101.256	115.911	181.808	C.2	2	MET30	0.000	
16	   O	101.038	115.921	183.025	O.2	2	MET30	0.000	
17	  CB	102.390	117.916	180.807	C.3	2	MET30	0.000	
18	  CG	101.963	118.854	181.930	C.3	2	MET30	0.000	
19	  SD	101.775	120.575	181.438	S.3	2	MET30	0.000	
20	  CE	103.487	121.063	181.273	C.3	2	MET30	0.000	
21	   N	100.379	115.417	180.924	N.am	3	HIS31	0.000	
22	  CA	99.121	114.813	181.362	C.3	3	HIS31	0.000	
23	   C	99.361	113.546	182.178	C.2	3	HIS31	0.000	
24	   O	98.614	113.256	183.120	O.2	3	HIS31	0.000	
25	  CB	98.238	114.511	180.151	C.3	3	HIS31	0.000	
26	  CG	96.898	113.946	180.507	C.2	3	HIS31	0.000	
27	 CD2	96.403	112.690	180.401	C.2	3	HIS31	0.000	
28	 ND1	95.888	114.712	181.048	N.2	3	HIS31	0.000	
29	 CE1	94.828	113.953	181.260	C.2	3	HIS31	0.000	
30	 NE2	95.114	112.722	180.876	N.pl3	3	HIS31	0.000	
31	   N	100.384	112.768	181.812	N.am	4	LYS32	0.000	
32	  CA	100.780	111.622	182.628	C.3	4	LYS32	0.000	
33	   C	101.330	112.060	183.981	C.2	4	LYS32	0.000	
34	   O	101.031	111.437	185.008	O.2	4	LYS32	0.000	
35	  CB	101.806	110.769	181.882	C.3	4	LYS32	0.000	
36	  CG	101.234	109.986	180.710	C.3	4	LYS32	0.000	
37	  CD	102.306	109.158	180.020	C.3	4	LYS32	0.000	
38	  CE	101.740	108.407	178.825	C.3	4	LYS32	0.000	
39	  NZ	102.783	107.613	178.120	N.4	4	LYS32	0.000	
40	   N	102.153	113.114	184.002	N.am	5	LEU33	0.000	
41	  CA	102.640	113.644	185.275	C.3	5	LEU33	0.000	
42	   C	101.524	114.291	186.091	C.2	5	LEU33	0.000	
43	   O	101.476	114.128	187.316	O.2	5	LEU33	0.000	
44	  CB	103.782	114.634	185.040	C.3	5	LEU33	0.000	
45	  CG	105.219	114.097	185.087	C.3	5	LEU33	0.000	
46	 CD1	105.543	113.117	183.971	C.3	5	LEU33	0.000	
47	 CD2	106.187	115.268	185.057	C.3	5	LEU33	0.000	
48	   N	100.633	115.038	185.444	N.am	6	LEU34	0.000	
49	  CA	99.521	115.672	186.154	C.3	6	LEU34	0.000	
50	   C	98.479	114.642	186.580	C.2	6	LEU34	0.000	
51	   O	98.039	114.631	187.729	O.2	6	LEU34	0.000	
52	  CB	98.863	116.752	185.291	C.3	6	LEU34	0.000	
53	  CG	97.729	117.554	185.931	C.3	6	LEU34	0.000	
54	 CD1	98.240	118.349	187.121	C.3	6	LEU34	0.000	
55	 CD2	97.078	118.471	184.907	C.3	6	LEU34	0.000	
@<TRIPOS>BOND
1 1 2 1
2 2 3 1
3 2 5 1
4 3 4 2
5 3 13 1
6 5 6 1
7 6 7 2
8 6 8 1
9 7 9 1
10 8 10 2
11 9 11 2
12 10 11 1
13 11 12 1
14 13 14 1
15 14 15 1
16 14 17 1
17 15 16 2
18 15 21 1
19 17 18 1
20 18 19 1
21 19 20 1
22 21 22 1
23 22 23 1
24 22 25 1
25 23 24 2
26 23 31 1
27 25 26 1
28 26 27 2
29 26 28 1
30 27 30 1
31 28 29 2
32 29 30 1
33 31 32 1
34 32 33 1
35 32 35 1
36 33 34 2
37 33 40 1
38 35 36 1
39 36 37 1
40 37 38 1
41 38 39 1
42 40 41 1
43 41 42 1
44 41 44 1
45 42 43 2
46 42 48 1
47 44 45 1
48 45 46 1
49 45 47 1
50 48 49 1
51 49 50 1
52 49 52 1
53 50 51 2
54 52 53 1
55 53 54 1
56 53 55 1
@<TRIPOS>SUBSTRUCTURE
1	TYR29	1	RESIDUE	1 P	TYR
2	MET30	13	RESIDUE	1 P	MET
3	HIS31	21	RESIDUE	1 P	HIS
4	LYS32	31	RESIDUE	1 P	LYS
5	LEU33	40	RESIDUE	1 P	LEU
6	LEU34	48	RESIDUE	1 P	LEU
