# created with PyMOL 2.5.2
@<TRIPOS>MOLECULE
7F16_receptor_and_peptide_only
49 49 5                 
SMALL
USER_CHARGES
@<TRIPOS>ATOM
1	   N	105.100	119.404	165.893	N.am	1	LEU20	0.000	
2	  CA	103.793	118.871	166.263	C.3	1	LEU20	0.000	
3	   C	103.916	117.605	167.103	C.2	1	LEU20	0.000	
4	   O	103.231	117.463	168.123	O.2	1	LEU20	0.000	
5	  CB	102.969	118.599	165.004	C.3	1	LEU20	0.000	
6	  CG	101.551	118.074	165.227	C.3	1	LEU20	0.000	
7	 CD1	100.704	119.101	165.963	C.3	1	LEU20	0.000	
8	 CD2	100.910	117.687	163.905	C.3	1	LEU20	0.000	
9	   N	104.774	116.666	166.684	N.am	2	GLU21	0.000	
10	  CA	104.949	115.438	167.457	C.3	2	GLU21	0.000	
11	   C	105.637	115.715	168.792	C.2	2	GLU21	0.000	
12	   O	105.302	115.084	169.801	O.2	2	GLU21	0.000	
13	  CB	105.696	114.372	166.639	C.3	2	GLU21	0.000	
14	  CG	107.149	114.654	166.280	C.3	2	GLU21	0.000	
15	  CD	107.765	113.561	165.429	C.2	2	GLU21	0.000	
16	 OE1	107.053	112.589	165.099	O.co2	2	GLU21	0.000	
17	 OE2	108.962	113.673	165.092	O.co2	2	GLU21	0.000	
18	   N	106.588	116.660	168.820	N.am	3	ARG22	0.000	
19	  CA	107.222	117.071	170.071	C.3	3	ARG22	0.000	
20	   C	106.206	117.690	171.028	C.2	3	ARG22	0.000	
21	   O	106.199	117.380	172.224	O.2	3	ARG22	0.000	
22	  CB	108.369	118.040	169.758	C.3	3	ARG22	0.000	
23	  CG	109.316	118.402	170.911	C.3	3	ARG22	0.000	
24	  CD	108.920	119.698	171.617	C.3	3	ARG22	0.000	
25	  NE	108.702	120.784	170.664	N.pl3	3	ARG22	0.000	
26	  CZ	109.664	121.544	170.151	C.cat	3	ARG22	0.000	
27	 NH1	109.361	122.503	169.288	N.pl3	3	ARG22	0.000	
28	 NH2	110.927	121.351	170.503	N.pl3	3	ARG22	0.000	
29	   N	105.343	118.574	170.513	N.am	4	ARG23	0.000	
30	  CA	104.320	119.215	171.335	C.3	4	ARG23	0.000	
31	   C	103.293	118.209	171.842	C.2	4	ARG23	0.000	
32	   O	102.860	118.286	172.998	O.2	4	ARG23	0.000	
33	  CB	103.635	120.322	170.535	C.3	4	ARG23	0.000	
34	  CG	102.671	121.176	171.335	C.3	4	ARG23	0.000	
35	  CD	102.043	122.245	170.456	C.3	4	ARG23	0.000	
36	  NE	103.040	123.173	169.930	N.pl3	4	ARG23	0.000	
37	  CZ	103.487	124.242	170.579	C.cat	4	ARG23	0.000	
38	 NH1	103.025	124.532	171.788	N.pl3	4	ARG23	0.000	
39	 NH2	104.397	125.028	170.018	N.pl3	4	ARG23	0.000	
40	   N	102.881	117.269	170.984	N.am	5	HIS24	0.000	
41	  CA	101.931	116.237	171.391	C.3	5	HIS24	0.000	
42	   C	102.529	115.316	172.449	C.2	5	HIS24	0.000	
43	   O	101.852	114.961	173.424	O.2	5	HIS24	0.000	
44	  CB	101.479	115.434	170.171	C.3	5	HIS24	0.000	
45	  CG	100.458	114.384	170.482	C.2	5	HIS24	0.000	
46	 CD2	100.559	113.036	170.554	C.2	5	HIS24	0.000	
47	 ND1	99.143	114.685	170.761	N.2	5	HIS24	0.000	
48	 CE1	98.477	113.568	170.994	C.2	5	HIS24	0.000	
49	 NE2	99.314	112.553	170.875	N.pl3	5	HIS24	0.000	
@<TRIPOS>BOND
1 1 2 1
2 2 3 1
3 2 5 1
4 3 4 2
5 3 9 1
6 5 6 1
7 6 7 1
8 6 8 1
9 9 10 1
10 10 11 1
11 10 13 1
12 11 12 2
13 11 18 1
14 13 14 1
15 14 15 1
16 15 16 2
17 15 17 1
18 18 19 1
19 19 20 1
20 19 22 1
21 20 21 2
22 20 29 1
23 22 23 1
24 23 24 1
25 24 25 1
26 25 26 1
27 26 27 2
28 26 28 1
29 29 30 1
30 30 31 1
31 30 33 1
32 31 32 2
33 31 40 1
34 33 34 1
35 34 35 1
36 35 36 1
37 36 37 1
38 37 38 2
39 37 39 1
40 40 41 1
41 41 42 1
42 41 44 1
43 42 43 2
44 44 45 1
45 45 46 2
46 45 47 1
47 46 49 1
48 47 48 2
49 48 49 1
@<TRIPOS>SUBSTRUCTURE
1	LEU20	1	RESIDUE	1 P	LEU
2	GLU21	9	RESIDUE	1 P	GLU
3	ARG22	18	RESIDUE	1 P	ARG
4	ARG23	29	RESIDUE	1 P	ARG
5	HIS24	40	RESIDUE	1 P	HIS
