# created with PyMOL 2.5.2
@<TRIPOS>MOLECULE
7F16_receptor_and_peptide_only
49 49 5                 
SMALL
USER_CHARGES
@<TRIPOS>ATOM
1	   N	-2.380	-1.766	1.811	N.3	1	LEU20	0.000	
2	  CA	-2.116	-1.966	0.390	C.3	1	LEU20	0.000	
3	   C	-1.273	-0.838	-0.193	C.2	1	LEU20	0.000	
4	   O	-0.311	-1.093	-0.927	O.2	1	LEU20	0.000	
5	  CB	-3.438	-2.093	-0.369	C.3	1	LEU20	0.000	
6	  CG	-3.330	-2.349	-1.872	C.3	1	LEU20	0.000	
7	 CD1	-2.660	-3.688	-2.144	C.3	1	LEU20	0.000	
8	 CD2	-4.700	-2.283	-2.525	C.3	1	LEU20	0.000	
9	   N	-1.625	0.418	0.111	N.am	2	GLU21	0.000	
10	  CA	-0.844	1.541	-0.403	C.3	2	GLU21	0.000	
11	   C	0.542	1.593	0.235	C.2	2	GLU21	0.000	
12	   O	1.519	1.936	-0.439	O.2	2	GLU21	0.000	
13	  CB	-1.603	2.867	-0.230	C.3	2	GLU21	0.000	
14	  CG	-1.845	3.357	1.191	C.3	2	GLU21	0.000	
15	  CD	-2.647	4.642	1.240	C.2	2	GLU21	0.000	
16	 OE1	-3.036	5.144	0.164	O.co2	2	GLU21	0.000	
17	 OE2	-2.888	5.151	2.354	O.co2	2	GLU21	0.000	
18	   N	0.648	1.244	1.526	N.am	3	ARG22	0.000	
19	  CA	1.947	1.156	2.190	C.3	3	ARG22	0.000	
20	   C	2.822	0.079	1.553	C.2	3	ARG22	0.000	
21	   O	4.013	0.300	1.308	O.2	3	ARG22	0.000	
22	  CB	1.729	0.896	3.686	C.3	3	ARG22	0.000	
23	  CG	2.955	1.010	4.604	C.3	3	ARG22	0.000	
24	  CD	3.631	-0.337	4.857	C.3	3	ARG22	0.000	
25	  NE	2.667	-1.352	5.276	N.pl3	3	ARG22	0.000	
26	  CZ	2.234	-1.514	6.522	C.2	3	ARG22	0.000	
27	 NH1	1.352	-2.465	6.798	N.2	3	ARG22	0.000	
28	 NH2	2.685	-0.733	7.493	N.pl3	3	ARG22	0.000	
29	   N	2.243	-1.097	1.283	N.am	4	ARG23	0.000	
30	  CA	2.982	-2.191	0.660	C.3	4	ARG23	0.000	
31	   C	3.403	-1.847	-0.764	C.2	4	ARG23	0.000	
32	   O	4.521	-2.172	-1.182	O.2	4	ARG23	0.000	
33	  CB	2.134	-3.461	0.675	C.3	4	ARG23	0.000	
34	  CG	2.857	-4.710	0.211	C.3	4	ARG23	0.000	
35	  CD	1.934	-5.917	0.262	C.3	4	ARG23	0.000	
36	  NE	1.492	-6.207	1.622	N.pl3	4	ARG23	0.000	
37	  CZ	2.177	-6.936	2.495	C.2	4	ARG23	0.000	
38	 NH1	3.346	-7.462	2.155	N.2	4	ARG23	0.000	
39	 NH2	1.693	-7.146	3.713	N.pl3	4	ARG23	0.000	
40	   N	2.512	-1.204	-1.528	N.am	5	HIS24	0.000	
41	  CA	2.840	-0.796	-2.891	C.3	5	HIS24	0.000	
42	   C	3.939	0.260	-2.907	C.2	5	HIS24	0.000	
43	   O	4.856	0.196	-3.738	O.2	5	HIS24	0.000	
44	  CB	1.585	-0.279	-3.596	C.3	5	HIS24	0.000	
45	  CG	1.811	0.114	-5.023	C.2	5	HIS24	0.000	
46	 CD2	1.887	1.330	-5.612	C.2	5	HIS24	0.000	
47	 ND1	1.985	-0.810	-6.030	N.2	5	HIS24	0.000	
48	 CE1	2.161	-0.181	-7.178	C.2	5	HIS24	0.000	
49	 NE2	2.106	1.119	-6.951	N.pl3	5	HIS24	0.000	
@<TRIPOS>BOND
1 1 2 1
2 2 3 1
3 2 5 1
4 3 4 2
5 3 9 1
6 5 6 1
7 6 7 1
8 6 8 1
9 9 10 1
10 10 11 1
11 10 13 1
12 11 12 2
13 11 18 1
14 13 14 1
15 14 15 1
16 15 16 2
17 15 17 1
18 18 19 1
19 19 20 1
20 19 22 1
21 20 21 2
22 20 29 1
23 22 23 1
24 23 24 1
25 24 25 1
26 25 26 1
27 26 27 2
28 26 28 1
29 29 30 1
30 30 31 1
31 30 33 1
32 31 32 2
33 31 40 1
34 33 34 1
35 34 35 1
36 35 36 1
37 36 37 1
38 37 38 2
39 37 39 1
40 40 41 1
41 41 42 1
42 41 44 1
43 42 43 2
44 44 45 1
45 45 46 2
46 45 47 1
47 46 49 1
48 47 48 2
49 48 49 1
@<TRIPOS>SUBSTRUCTURE
1	LEU20	1	RESIDUE	1 P	LEU
2	GLU21	9	RESIDUE	1 P	GLU
3	ARG22	18	RESIDUE	1 P	ARG
4	ARG23	29	RESIDUE	1 P	ARG
5	HIS24	40	RESIDUE	1 P	HIS
