# created with PyMOL 2.5.2
@<TRIPOS>MOLECULE
7F16_receptor_and_peptide_only
80 80 11                
SMALL
USER_CHARGES
@<TRIPOS>ATOM
1	   N	116.071	124.470	151.589	N.3	1	SER1	0.000	
2	  CA	115.520	125.066	152.800	C.3	1	SER1	0.000	
3	   C	115.099	126.511	152.562	C.2	1	SER1	0.000	
4	   O	113.930	126.789	152.335	O.2	1	SER1	0.000	
5	  CB	116.529	124.996	153.943	C.3	1	SER1	0.000	
6	  OG	116.012	125.598	155.116	O.3	1	SER1	0.000	
7	   N	116.048	127.441	152.664	N.am	2	LEU2	0.000	
8	  CA	115.712	128.843	152.437	C.3	2	LEU2	0.000	
9	   C	115.481	129.135	150.957	C.2	2	LEU2	0.000	
10	   O	114.517	129.821	150.597	O.2	2	LEU2	0.000	
11	  CB	116.814	129.741	152.998	C.3	2	LEU2	0.000	
12	  CG	116.566	131.248	152.922	C.3	2	LEU2	0.000	
13	 CD1	115.343	131.631	153.741	C.3	2	LEU2	0.000	
14	 CD2	117.791	132.015	153.394	C.3	2	LEU2	0.000	
15	   N	116.352	128.623	150.085	N.am	3	ALA3	0.000	
16	  CA	116.323	128.980	148.660	C.3	3	ALA3	0.000	
17	   C	115.355	128.130	147.839	C.2	3	ALA3	0.000	
18	   O	114.370	128.645	147.301	O.2	3	ALA3	0.000	
19	  CB	117.737	128.891	148.082	C.3	3	ALA3	0.000	
20	   N	115.649	126.834	147.716	N.am	4	LEU4	0.000	
21	  CA	114.917	125.949	146.814	C.3	4	LEU4	0.000	
22	   C	113.485	125.723	147.288	C.2	4	LEU4	0.000	
23	   O	113.258	125.380	148.449	O.2	4	LEU4	0.000	
24	  CB	115.657	124.621	146.682	C.3	4	LEU4	0.000	
25	  CG	117.038	124.790	146.045	C.3	4	LEU4	0.000	
26	 CD1	117.797	123.473	145.984	C.3	4	LEU4	0.000	
27	 CD2	116.908	125.419	144.667	C.3	4	LEU4	0.000	
28	   N	112.530	125.888	146.364	N.am	5	ALA5	0.000	
29	  CA	111.106	125.902	146.704	C.3	5	ALA5	0.000	
30	   C	110.604	124.539	147.171	C.2	5	ALA5	0.000	
31	   O	109.907	124.442	148.190	O.2	5	ALA5	0.000	
32	  CB	110.295	126.377	145.499	C.3	5	ALA5	0.000	
33	   N	110.916	123.479	146.419	N.am	6	ASP6	0.000	
34	  CA	110.490	122.136	146.805	C.3	6	ASP6	0.000	
35	   C	111.191	121.694	148.085	C.2	6	ASP6	0.000	
36	   O	110.578	121.059	148.957	O.2	6	ASP6	0.000	
37	  CB	110.769	121.161	145.659	C.3	6	ASP6	0.000	
38	  CG	110.009	119.851	145.792	C.2	6	ASP6	0.000	
39	 OD1	109.241	119.680	146.762	O.co2	6	ASP6	0.000	
40	 OD2	110.181	118.984	144.909	O.co2	6	ASP6	0.000	
41	   N	112.475	122.043	148.215	N.am	7	ASP7	0.000	
42	  CA	113.202	121.780	149.450	C.3	7	ASP7	0.000	
43	   C	112.633	122.597	150.605	C.2	7	ASP7	0.000	
44	   O	112.605	122.123	151.746	O.2	7	ASP7	0.000	
45	  CB	114.686	122.083	149.261	C.3	7	ASP7	0.000	
46	  CG	115.551	121.396	150.290	C.2	7	ASP7	0.000	
47	 OD1	115.017	120.565	151.050	O.co2	7	ASP7	0.000	
48	 OD2	116.757	121.699	150.354	O.co2	7	ASP7	0.000	
49	   N	112.174	123.827	150.323	N.am	8	ALA8	0.000	
50	  CA	111.518	124.642	151.346	C.3	8	ALA8	0.000	
51	   C	110.244	123.982	151.838	C.2	8	ALA8	0.000	
52	   O	110.002	123.919	153.048	O.2	8	ALA8	0.000	
53	  CB	111.183	126.035	150.811	C.3	8	ALA8	0.000	
54	   N	109.443	123.451	150.910	N.am	9	ALA9	0.000	
55	  CA	108.195	122.790	151.271	C.3	9	ALA9	0.000	
56	   C	108.449	121.541	152.104	C.2	9	ALA9	0.000	
57	   O	107.829	121.353	153.158	O.2	9	ALA9	0.000	
58	  CB	107.410	122.438	150.013	C.3	9	ALA9	0.000	
59	   N	109.395	120.701	151.666	N.am	10	PHE10	0.000	
60	  CA	109.678	119.462	152.388	C.3	10	PHE10	0.000	
61	   C	110.292	119.729	153.760	C.2	10	PHE10	0.000	
62	   O	109.855	119.153	154.762	O.2	10	PHE10	0.000	
63	  CB	110.582	118.550	151.561	C.3	10	PHE10	0.000	
64	  CG	110.976	117.291	152.278	C.2	10	PHE10	0.000	
65	 CD1	110.032	116.311	152.554	C.2	10	PHE10	0.000	
66	 CD2	112.289	117.082	152.670	C.2	10	PHE10	0.000	
67	 CE1	110.388	115.154	153.225	C.2	10	PHE10	0.000	
68	 CE2	112.655	115.924	153.332	C.2	10	PHE10	0.000	
69	  CZ	111.703	114.957	153.608	C.2	10	PHE10	0.000	
70	   N	111.292	120.609	153.838	N.am	11	ARG11	0.000	
71	  CA	111.935	120.848	155.126	C.3	11	ARG11	0.000	
72	   C	111.018	121.601	156.084	C.2	11	ARG11	0.000	
73	   O	111.042	121.342	157.291	O.2	11	ARG11	0.000	
74	  CB	113.257	121.584	154.928	C.3	11	ARG11	0.000	
75	  CG	114.302	120.713	154.264	C.3	11	ARG11	0.000	
76	  CD	115.642	121.401	154.150	C.3	11	ARG11	0.000	
77	  NE	116.589	120.594	153.388	N.pl3	11	ARG11	0.000	
78	  CZ	117.377	119.666	153.918	C.cat	11	ARG11	0.000	
79	 NH1	118.206	118.978	153.144	N.pl3	11	ARG11	0.000	
80	 NH2	117.340	119.424	155.221	N.pl3	11	ARG11	0.000	
@<TRIPOS>BOND
1 1 2 1
2 2 3 1
3 2 5 1
4 3 4 2
5 3 7 1
6 5 6 1
7 7 8 1
8 8 9 1
9 8 11 1
10 9 10 2
11 9 15 1
12 11 12 1
13 12 13 1
14 12 14 1
15 15 16 1
16 16 17 1
17 16 19 1
18 17 18 2
19 17 20 1
20 20 21 1
21 21 22 1
22 21 24 1
23 22 23 2
24 22 28 1
25 24 25 1
26 25 26 1
27 25 27 1
28 28 29 1
29 29 30 1
30 29 32 1
31 30 31 2
32 30 33 1
33 33 34 1
34 34 35 1
35 34 37 1
36 35 36 2
37 35 41 1
38 37 38 1
39 38 39 2
40 38 40 1
41 41 42 1
42 42 43 1
43 42 45 1
44 43 44 2
45 43 49 1
46 45 46 1
47 46 47 2
48 46 48 1
49 49 50 1
50 50 51 1
51 50 53 1
52 51 52 2
53 51 54 1
54 54 55 1
55 55 56 1
56 55 58 1
57 56 57 2
58 56 59 1
59 59 60 1
60 60 61 1
61 60 63 1
62 61 62 2
63 61 70 1
64 63 64 1
65 64 65 2
66 64 66 1
67 65 67 1
68 66 68 2
69 67 69 2
70 68 69 1
71 70 71 1
72 71 72 1
73 71 74 1
74 72 73 2
75 74 75 1
76 75 76 1
77 76 77 1
78 77 78 1
79 78 79 2
80 78 80 1
@<TRIPOS>SUBSTRUCTURE
1	SER1	1	RESIDUE	1 P	SER
2	LEU2	7	RESIDUE	1 P	LEU
3	ALA3	15	RESIDUE	1 P	ALA
4	LEU4	20	RESIDUE	1 P	LEU
5	ALA5	28	RESIDUE	1 P	ALA
6	ASP6	33	RESIDUE	1 P	ASP
7	ASP7	41	RESIDUE	1 P	ASP
8	ALA8	49	RESIDUE	1 P	ALA
9	ALA9	54	RESIDUE	1 P	ALA
10	PHE10	59	RESIDUE	1 P	PHE
11	ARG11	70	RESIDUE	1 P	ARG
