# created with PyMOL 2.5.2
@<TRIPOS>MOLECULE
7F16_receptor_and_peptide_only
53 53 7                 
SMALL
USER_CHARGES
@<TRIPOS>ATOM
1	   N	112.530	125.888	146.364	N.am	1	ALA5	0.000	
2	  CA	111.106	125.902	146.704	C.3	1	ALA5	0.000	
3	   C	110.604	124.539	147.171	C.2	1	ALA5	0.000	
4	   O	109.907	124.442	148.190	O.2	1	ALA5	0.000	
5	  CB	110.295	126.377	145.499	C.3	1	ALA5	0.000	
6	   N	110.916	123.479	146.419	N.am	2	ASP6	0.000	
7	  CA	110.490	122.136	146.805	C.3	2	ASP6	0.000	
8	   C	111.191	121.694	148.085	C.2	2	ASP6	0.000	
9	   O	110.578	121.059	148.957	O.2	2	ASP6	0.000	
10	  CB	110.769	121.161	145.659	C.3	2	ASP6	0.000	
11	  CG	110.009	119.851	145.792	C.2	2	ASP6	0.000	
12	 OD1	109.241	119.680	146.762	O.co2	2	ASP6	0.000	
13	 OD2	110.181	118.984	144.909	O.co2	2	ASP6	0.000	
14	   N	112.475	122.043	148.215	N.am	3	ASP7	0.000	
15	  CA	113.202	121.780	149.450	C.3	3	ASP7	0.000	
16	   C	112.633	122.597	150.605	C.2	3	ASP7	0.000	
17	   O	112.605	122.123	151.746	O.2	3	ASP7	0.000	
18	  CB	114.686	122.083	149.261	C.3	3	ASP7	0.000	
19	  CG	115.551	121.396	150.290	C.2	3	ASP7	0.000	
20	 OD1	115.017	120.565	151.050	O.co2	3	ASP7	0.000	
21	 OD2	116.757	121.699	150.354	O.co2	3	ASP7	0.000	
22	   N	112.174	123.827	150.323	N.am	4	ALA8	0.000	
23	  CA	111.518	124.642	151.346	C.3	4	ALA8	0.000	
24	   C	110.244	123.982	151.838	C.2	4	ALA8	0.000	
25	   O	110.002	123.919	153.048	O.2	4	ALA8	0.000	
26	  CB	111.183	126.035	150.811	C.3	4	ALA8	0.000	
27	   N	109.443	123.451	150.910	N.am	5	ALA9	0.000	
28	  CA	108.195	122.790	151.271	C.3	5	ALA9	0.000	
29	   C	108.449	121.541	152.104	C.2	5	ALA9	0.000	
30	   O	107.829	121.353	153.158	O.2	5	ALA9	0.000	
31	  CB	107.410	122.438	150.013	C.3	5	ALA9	0.000	
32	   N	109.395	120.701	151.666	N.am	6	PHE10	0.000	
33	  CA	109.678	119.462	152.388	C.3	6	PHE10	0.000	
34	   C	110.292	119.729	153.760	C.2	6	PHE10	0.000	
35	   O	109.855	119.153	154.762	O.2	6	PHE10	0.000	
36	  CB	110.582	118.550	151.561	C.3	6	PHE10	0.000	
37	  CG	110.976	117.291	152.278	C.2	6	PHE10	0.000	
38	 CD1	110.032	116.311	152.554	C.2	6	PHE10	0.000	
39	 CD2	112.289	117.082	152.670	C.2	6	PHE10	0.000	
40	 CE1	110.388	115.154	153.225	C.2	6	PHE10	0.000	
41	 CE2	112.655	115.924	153.332	C.2	6	PHE10	0.000	
42	  CZ	111.703	114.957	153.608	C.2	6	PHE10	0.000	
43	   N	111.292	120.609	153.838	N.am	7	ARG11	0.000	
44	  CA	111.935	120.848	155.126	C.3	7	ARG11	0.000	
45	   C	111.018	121.601	156.084	C.2	7	ARG11	0.000	
46	   O	111.042	121.342	157.291	O.2	7	ARG11	0.000	
47	  CB	113.257	121.584	154.928	C.3	7	ARG11	0.000	
48	  CG	114.302	120.713	154.264	C.3	7	ARG11	0.000	
49	  CD	115.642	121.401	154.150	C.3	7	ARG11	0.000	
50	  NE	116.589	120.594	153.388	N.pl3	7	ARG11	0.000	
51	  CZ	117.377	119.666	153.918	C.cat	7	ARG11	0.000	
52	 NH1	118.206	118.978	153.144	N.pl3	7	ARG11	0.000	
53	 NH2	117.340	119.424	155.221	N.pl3	7	ARG11	0.000	
@<TRIPOS>BOND
1 1 2 1
2 2 3 1
3 2 5 1
4 3 4 2
5 3 6 1
6 6 7 1
7 7 8 1
8 7 10 1
9 8 9 2
10 8 14 1
11 10 11 1
12 11 12 2
13 11 13 1
14 14 15 1
15 15 16 1
16 15 18 1
17 16 17 2
18 16 22 1
19 18 19 1
20 19 20 2
21 19 21 1
22 22 23 1
23 23 24 1
24 23 26 1
25 24 25 2
26 24 27 1
27 27 28 1
28 28 29 1
29 28 31 1
30 29 30 2
31 29 32 1
32 32 33 1
33 33 34 1
34 33 36 1
35 34 35 2
36 34 43 1
37 36 37 1
38 37 38 2
39 37 39 1
40 38 40 1
41 39 41 2
42 40 42 2
43 41 42 1
44 43 44 1
45 44 45 1
46 44 47 1
47 45 46 2
48 47 48 1
49 48 49 1
50 49 50 1
51 50 51 1
52 51 52 2
53 51 53 1
@<TRIPOS>SUBSTRUCTURE
1	ALA5	1	RESIDUE	1 P	ALA
2	ASP6	6	RESIDUE	1 P	ASP
3	ASP7	14	RESIDUE	1 P	ASP
4	ALA8	22	RESIDUE	1 P	ALA
5	ALA9	27	RESIDUE	1 P	ALA
6	PHE10	32	RESIDUE	1 P	PHE
7	ARG11	43	RESIDUE	1 P	ARG
