# created with PyMOL 2.5.2
@<TRIPOS>MOLECULE
7F16_receptor_and_peptide_only
53 53 7                 
SMALL
USER_CHARGES
@<TRIPOS>ATOM
1	   N	-1.929	-1.165	2.183	N.3	1	ALA5	0.000	
2	  CA	-1.698	-1.821	0.895	C.3	1	ALA5	0.000	
3	   C	-1.274	-0.838	-0.192	C.2	1	ALA5	0.000	
4	   O	-0.310	-1.093	-0.928	O.2	1	ALA5	0.000	
5	  CB	-2.960	-2.568	0.465	C.3	1	ALA5	0.000	
6	   N	-2.002	0.274	-0.334	N.am	2	ASP6	0.000	
7	  CA	-1.652	1.275	-1.338	C.3	2	ASP6	0.000	
8	   C	-0.324	1.941	-0.997	C.2	2	ASP6	0.000	
9	   O	0.498	2.210	-1.887	O.2	2	ASP6	0.000	
10	  CB	-2.776	2.308	-1.445	C.3	2	ASP6	0.000	
11	  CG	-2.704	3.140	-2.715	C.2	2	ASP6	0.000	
12	 OD1	-1.795	2.921	-3.544	O.co2	2	ASP6	0.000	
13	 OD2	-3.573	4.020	-2.887	O.co2	2	ASP6	0.000	
14	   N	-0.096	2.195	0.295	N.am	3	ASP7	0.000	
15	  CA	1.190	2.714	0.742	C.3	3	ASP7	0.000	
16	   C	2.300	1.693	0.519	C.2	3	ASP7	0.000	
17	   O	3.435	2.068	0.204	O.2	3	ASP7	0.000	
18	  CB	1.114	3.107	2.215	C.3	3	ASP7	0.000	
19	  CG	2.204	4.074	2.611	C.2	3	ASP7	0.000	
20	 OD1	2.920	4.557	1.712	O.co2	3	ASP7	0.000	
21	 OD2	2.360	4.336	3.818	O.co2	3	ASP7	0.000	
22	   N	1.987	0.396	0.676	N.am	4	ALA8	0.000	
23	  CA	2.959	-0.657	0.382	C.3	4	ALA8	0.000	
24	   C	3.352	-0.647	-1.083	C.2	4	ALA8	0.000	
25	   O	4.540	-0.737	-1.410	O.2	4	ALA8	0.000	
26	  CB	2.403	-2.036	0.740	C.3	4	ALA8	0.000	
27	   N	2.364	-0.498	-1.970	N.am	5	ALA9	0.000	
28	  CA	2.628	-0.472	-3.404	C.3	5	ALA9	0.000	
29	   C	3.476	0.733	-3.790	C.2	5	ALA9	0.000	
30	   O	4.479	0.593	-4.500	O.2	5	ALA9	0.000	
31	  CB	1.314	-0.465	-4.175	C.3	5	ALA9	0.000	
32	   N	3.109	1.919	-3.289	N.am	6	PHE10	0.000	
33	  CA	3.847	3.131	-3.638	C.3	6	PHE10	0.000	
34	   C	5.262	3.121	-3.065	C.2	6	PHE10	0.000	
35	   O	6.227	3.411	-3.781	O.2	6	PHE10	0.000	
36	  CB	3.089	4.376	-3.180	C.3	6	PHE10	0.000	
37	  CG	3.831	5.655	-3.438	C.2	6	PHE10	0.000	
38	 CD1	4.033	6.105	-4.736	C.2	6	PHE10	0.000	
39	 CD2	4.321	6.413	-2.385	C.2	6	PHE10	0.000	
40	 CE1	4.726	7.278	-4.979	C.2	6	PHE10	0.000	
41	 CE2	5.006	7.591	-2.620	C.2	6	PHE10	0.000	
42	  CZ	5.207	8.026	-3.919	C.2	6	PHE10	0.000	
43	   N	5.418	2.775	-1.786	N.am	7	ARG11	0.000	
44	  CA	6.751	2.805	-1.194	C.3	7	ARG11	0.000	
45	   C	7.639	1.693	-1.743	C.2	7	ARG11	0.000	
46	   O	8.844	1.898	-1.920	O.2	7	ARG11	0.000	
47	  CB	6.656	2.740	0.328	C.3	7	ARG11	0.000	
48	  CG	6.071	4.005	0.918	C.3	7	ARG11	0.000	
49	  CD	6.060	3.987	2.429	C.3	7	ARG11	0.000	
50	  NE	5.370	5.154	2.968	N.pl3	7	ARG11	0.000	
51	  CZ	5.956	6.318	3.222	C.2	7	ARG11	0.000	
52	 NH1	5.246	7.327	3.709	N.2	7	ARG11	0.000	
53	 NH2	7.252	6.477	2.991	N.pl3	7	ARG11	0.000	
@<TRIPOS>BOND
1 1 2 1
2 2 3 1
3 2 5 1
4 3 4 2
5 3 6 1
6 6 7 1
7 7 8 1
8 7 10 1
9 8 9 2
10 8 14 1
11 10 11 1
12 11 12 2
13 11 13 1
14 14 15 1
15 15 16 1
16 15 18 1
17 16 17 2
18 16 22 1
19 18 19 1
20 19 20 2
21 19 21 1
22 22 23 1
23 23 24 1
24 23 26 1
25 24 25 2
26 24 27 1
27 27 28 1
28 28 29 1
29 28 31 1
30 29 30 2
31 29 32 1
32 32 33 1
33 33 34 1
34 33 36 1
35 34 35 2
36 34 43 1
37 36 37 1
38 37 38 2
39 37 39 1
40 38 40 1
41 39 41 2
42 40 42 2
43 41 42 1
44 43 44 1
45 44 45 1
46 44 47 1
47 45 46 2
48 47 48 1
49 48 49 1
50 49 50 1
51 50 51 1
52 51 52 2
53 51 53 1
@<TRIPOS>SUBSTRUCTURE
1	ALA5	1	RESIDUE	1 P	ALA
2	ASP6	6	RESIDUE	1 P	ASP
3	ASP7	14	RESIDUE	1 P	ASP
4	ALA8	22	RESIDUE	1 P	ALA
5	ALA9	27	RESIDUE	1 P	ALA
6	PHE10	32	RESIDUE	1 P	PHE
7	ARG11	43	RESIDUE	1 P	ARG
