# created with PyMOL 2.5.2
@<TRIPOS>MOLECULE
7F16_receptor_and_peptide_only
80 80 11                
SMALL
USER_CHARGES
@<TRIPOS>ATOM
1	   N	-0.905	-0.557	2.221	N.3	1	SER1	0.000	
2	  CA	-1.375	-1.470	1.186	C.3	1	SER1	0.000	
3	   C	-1.267	-0.840	-0.197	C.2	1	SER1	0.000	
4	   O	-0.317	-1.091	-0.923	O.2	1	SER1	0.000	
5	  CB	-2.815	-1.897	1.457	C.3	1	SER1	0.000	
6	  OG	-3.288	-2.763	0.441	O.3	1	SER1	0.000	
7	   N	-2.273	-0.055	-0.582	N.am	2	LEU2	0.000	
8	  CA	-2.226	0.587	-1.892	C.3	2	LEU2	0.000	
9	   C	-1.222	1.736	-1.921	C.2	2	LEU2	0.000	
10	   O	-0.444	1.864	-2.874	O.2	2	LEU2	0.000	
11	  CB	-3.620	1.080	-2.282	C.3	2	LEU2	0.000	
12	  CG	-3.757	1.696	-3.674	C.3	2	LEU2	0.000	
13	 CD1	-3.429	0.670	-4.748	C.3	2	LEU2	0.000	
14	 CD2	-5.156	2.256	-3.875	C.3	2	LEU2	0.000	
15	   N	-1.221	2.579	-0.886	N.am	3	ALA3	0.000	
16	  CA	-0.418	3.810	-0.890	C.3	3	ALA3	0.000	
17	   C	1.021	3.599	-0.423	C.2	3	ALA3	0.000	
18	   O	1.965	3.777	-1.199	O.2	3	ALA3	0.000	
19	  CB	-1.109	4.874	-0.035	C.3	3	ALA3	0.000	
20	   N	1.193	3.251	0.854	N.am	4	LEU4	0.000	
21	  CA	2.512	3.197	1.478	C.3	4	LEU4	0.000	
22	   C	3.358	2.063	0.909	C.2	4	LEU4	0.000	
23	   O	2.905	0.919	0.842	O.2	4	LEU4	0.000	
24	  CB	2.361	3.051	2.990	C.3	4	LEU4	0.000	
25	  CG	1.668	4.259	3.621	C.3	4	LEU4	0.000	
26	 CD1	1.457	4.073	5.116	C.3	4	LEU4	0.000	
27	 CD2	2.451	5.529	3.327	C.3	4	LEU4	0.000	
28	   N	4.600	2.391	0.533	N.am	5	ALA5	0.000	
29	  CA	5.463	1.470	-0.210	C.3	5	ALA5	0.000	
30	   C	5.891	0.269	0.628	C.2	5	ALA5	0.000	
31	   O	5.819	-0.877	0.164	O.2	5	ALA5	0.000	
32	  CB	6.692	2.219	-0.724	C.3	5	ALA5	0.000	
33	   N	6.375	0.513	1.849	N.am	6	ASP6	0.000	
34	  CA	6.791	-0.582	2.722	C.3	6	ASP6	0.000	
35	   C	5.591	-1.425	3.141	C.2	6	ASP6	0.000	
36	   O	5.677	-2.660	3.211	O.2	6	ASP6	0.000	
37	  CB	7.519	-0.016	3.943	C.3	6	ASP6	0.000	
38	  CG	8.333	-1.060	4.690	C.2	6	ASP6	0.000	
39	 OD1	8.362	-2.236	4.269	O.co2	6	ASP6	0.000	
40	 OD2	8.955	-0.696	5.711	O.co2	6	ASP6	0.000	
41	   N	4.458	-0.764	3.402	N.am	7	ASP7	0.000	
42	  CA	3.222	-1.481	3.689	C.3	7	ASP7	0.000	
43	   C	2.746	-2.261	2.468	C.2	7	ASP7	0.000	
44	   O	2.188	-3.354	2.610	O.2	7	ASP7	0.000	
45	  CB	2.145	-0.504	4.153	C.3	7	ASP7	0.000	
46	  CG	1.034	-1.189	4.913	C.2	7	ASP7	0.000	
47	 OD1	1.178	-2.390	5.213	O.co2	7	ASP7	0.000	
48	 OD2	0.012	-0.535	5.193	O.co2	7	ASP7	0.000	
49	   N	2.961	-1.711	1.262	N.am	8	ALA8	0.000	
50	  CA	2.632	-2.433	0.033	C.3	8	ALA8	0.000	
51	   C	3.454	-3.701	-0.095	C.2	8	ALA8	0.000	
52	   O	2.914	-4.764	-0.421	O.2	8	ALA8	0.000	
53	  CB	2.868	-1.559	-1.200	C.3	8	ALA8	0.000	
54	   N	4.754	-3.609	0.199	N.am	9	ALA9	0.000	
55	  CA	5.637	-4.765	0.113	C.3	9	ALA9	0.000	
56	   C	5.245	-5.839	1.119	C.2	9	ALA9	0.000	
57	   O	5.115	-7.017	0.761	O.2	9	ALA9	0.000	
58	  CB	7.082	-4.334	0.334	C.3	9	ALA9	0.000	
59	   N	5.005	-5.438	2.373	N.am	10	PHE10	0.000	
60	  CA	4.656	-6.409	3.408	C.3	10	PHE10	0.000	
61	   C	3.291	-7.045	3.157	C.2	10	PHE10	0.000	
62	   O	3.151	-8.271	3.229	O.2	10	PHE10	0.000	
63	  CB	4.703	-5.763	4.792	C.3	10	PHE10	0.000	
64	  CG	4.279	-6.688	5.896	C.2	10	PHE10	0.000	
65	 CD1	5.063	-7.780	6.243	C.2	10	PHE10	0.000	
66	 CD2	3.102	-6.463	6.593	C.2	10	PHE10	0.000	
67	 CE1	4.670	-8.641	7.253	C.2	10	PHE10	0.000	
68	 CE2	2.707	-7.313	7.610	C.2	10	PHE10	0.000	
69	  CZ	3.494	-8.403	7.942	C.2	10	PHE10	0.000	
70	   N	2.274	-6.241	2.843	N.am	11	ARG11	0.000	
71	  CA	0.945	-6.812	2.647	C.3	11	ARG11	0.000	
72	   C	0.867	-7.634	1.366	C.2	11	ARG11	0.000	
73	   O	0.177	-8.657	1.331	O.2	11	ARG11	0.000	
74	  CB	-0.111	-5.711	2.667	C.3	11	ARG11	0.000	
75	  CG	-0.280	-5.105	4.044	C.3	11	ARG11	0.000	
76	  CD	-1.389	-4.081	4.094	C.3	11	ARG11	0.000	
77	  NE	-1.440	-3.418	5.392	N.pl3	11	ARG11	0.000	
78	  CZ	-2.128	-3.866	6.435	C.2	11	ARG11	0.000	
79	 NH1	-2.112	-3.196	7.580	N.2	11	ARG11	0.000	
80	 NH2	-2.836	-4.983	6.337	N.pl3	11	ARG11	0.000	
@<TRIPOS>BOND
1 1 2 1
2 2 3 1
3 2 5 1
4 3 4 2
5 3 7 1
6 5 6 1
7 7 8 1
8 8 9 1
9 8 11 1
10 9 10 2
11 9 15 1
12 11 12 1
13 12 13 1
14 12 14 1
15 15 16 1
16 16 17 1
17 16 19 1
18 17 18 2
19 17 20 1
20 20 21 1
21 21 22 1
22 21 24 1
23 22 23 2
24 22 28 1
25 24 25 1
26 25 26 1
27 25 27 1
28 28 29 1
29 29 30 1
30 29 32 1
31 30 31 2
32 30 33 1
33 33 34 1
34 34 35 1
35 34 37 1
36 35 36 2
37 35 41 1
38 37 38 1
39 38 39 2
40 38 40 1
41 41 42 1
42 42 43 1
43 42 45 1
44 43 44 2
45 43 49 1
46 45 46 1
47 46 47 2
48 46 48 1
49 49 50 1
50 50 51 1
51 50 53 1
52 51 52 2
53 51 54 1
54 54 55 1
55 55 56 1
56 55 58 1
57 56 57 2
58 56 59 1
59 59 60 1
60 60 61 1
61 60 63 1
62 61 62 2
63 61 70 1
64 63 64 1
65 64 65 2
66 64 66 1
67 65 67 1
68 66 68 2
69 67 69 2
70 68 69 1
71 70 71 1
72 71 72 1
73 71 74 1
74 72 73 2
75 74 75 1
76 75 76 1
77 76 77 1
78 77 78 1
79 78 79 2
80 78 80 1
@<TRIPOS>SUBSTRUCTURE
1	SER1	1	RESIDUE	1 P	SER
2	LEU2	7	RESIDUE	1 P	LEU
3	ALA3	15	RESIDUE	1 P	ALA
4	LEU4	20	RESIDUE	1 P	LEU
5	ALA5	28	RESIDUE	1 P	ALA
6	ASP6	33	RESIDUE	1 P	ASP
7	ASP7	41	RESIDUE	1 P	ASP
8	ALA8	49	RESIDUE	1 P	ALA
9	ALA9	54	RESIDUE	1 P	ALA
10	PHE10	59	RESIDUE	1 P	PHE
11	ARG11	70	RESIDUE	1 P	ARG
